 &DIAGNOSTICS_LIST
  fileName(1)     = 'diags/ssp',
  fields(1:1,1)   = 'ihop_ssp',
  frequency(1)    = 6400.,
 &

 &DIAG_STATIS_PARMS
 &
